@<TRIPOS>MOLECULE
LigC
24 24 1 0 0 
SMALL
USER_CHARGES


@<TRIPOS>ATOM
  1 C       63.9760    11.2810   101.1010 C.2   1 <1>  -0.3000 
  2 H       64.2660    10.2900   100.8650 H     1 <1>   0.1500 
  3 H       63.2090    11.3880   101.8210 H     1 <1>   0.1500 
  4 C       64.5290    12.3430   100.4720 C.2   1 <1>  -0.1733 
  5 C       65.5760    12.2480    99.4380 C.2   1 <1>   1.0500 
  6 O       65.8900    11.1220    98.9770 O.co2 1 <1>  -0.9000 
  7 O       66.1560    13.2860    99.0270 O.co2 1 <1>  -0.9000 
  8 O       64.0380    13.6100   100.8050 O.3   1 <1>  -0.3567 
  9 C       62.8490    14.1670   100.1660 C.3   1 <1>   0.3382 
 10 H       62.4780    14.9900   100.7580 H     1 <1>   0.0800 
 11 C       61.7970    13.0740   100.0910 C.2   1 <1>  -0.2882 
 12 H       61.1860    12.9490   100.9460 H     1 <1>   0.1500 
 13 C       61.7280    12.2000    99.0560 C.2   1 <1>  -0.2500 
 14 C       62.5540    12.4320    97.8840 C.2   1 <1>  -0.1500 
 15 H       62.6140    11.6520    97.1650 H     1 <1>   0.1500 
 16 C       63.2190    13.5850    97.7160 C.2   1 <1>  -0.2882 
 17 H       63.8330    13.7510    96.8710 H     1 <1>   0.1500 
 18 C       63.1860    14.6950    98.7410 C.3   1 <1>   0.3382 
 19 H       64.1300    15.2240    98.7640 H     1 <1>   0.0800 
 20 O       62.0870    15.5620    98.3520 O.3   1 <1>  -0.6800 
 21 H       61.3400    14.9690    98.1560 H     1 <1>   0.4000 
 22 C       60.8320    11.0380    99.0720 C.2   1 <1>   1.0500 
 23 O       61.0910    10.0080    98.4010 O.co2 1 <1>  -0.9000 
 24 O       59.7340    11.1500    99.6670 O.co2 1 <1>  -0.9000 
@<TRIPOS>BOND
  1   1   2  1   
  2   1   3  1   
  3   1   4  2   
  4   4   5  1   
  5   4   8  1   
  6   5   6  ar  
  7   5   7  ar  
  8   8   9  1   
  9   9  10  1   
 10   9  11  1   
 11   9  18  1   
 12  11  12  1   
 13  11  13  2   
 14  13  14  1   
 15  13  22  1   
 16  14  15  1   
 17  14  16  2   
 18  16  17  1   
 19  16  18  1   
 20  18  19  1   
 21  18  20  1   
 22  20  21  1   
 23  22  23  ar  
 24  22  24  ar  
@<TRIPOS>SUBSTRUCTURE
  1 ****  13 GROUP 4 **** **** 0

# MOE 2016.08 (io_trps.svl 2016.04)
