@<TRIPOS>MOLECULE
MOL
   18    17     1     0     0
SMALL
bcc


@<TRIPOS>ATOM
      1 P1           1.1840     0.0680     0.0740 p5         1 MOL       1.603300
      2 F1           1.0450    -1.4940     0.1910 f          1 MOL      -0.349400
      3 O1          -0.2910     0.6010     0.4780 os         1 MOL      -0.593200
      4 O2           2.2600     0.5540     1.0030 o          1 MOL      -0.810300
      5 C1          -1.4210     0.1630    -0.2570 c3         1 MOL       0.198100
      6 C2          -1.5270    -1.3510    -0.1570 c3         1 MOL      -0.111600
      7 C3          -2.6650     0.8560     0.2780 c3         1 MOL      -0.111600
      8 C4           1.4150     0.6030    -1.6090 c3         1 MOL      -0.478300
      9 H1          -1.3070     0.4560    -1.3050 h1         1 MOL       0.010700
     10 H2          -2.5260    -1.6910    -0.4500 hc         1 MOL       0.049533
     11 H3          -0.8290    -1.8420    -0.8410 hc         1 MOL       0.049533
     12 H4          -1.3260    -1.7060     0.8590 hc         1 MOL       0.049533
     13 H5          -3.5580     0.5650    -0.2830 hc         1 MOL       0.049533
     14 H6          -2.5520     1.9440     0.2160 hc         1 MOL       0.049533
     15 H7          -2.8210     0.6160     1.3350 hc         1 MOL       0.049533
     16 H8           2.4200     0.3370    -1.9480 hc         1 MOL       0.114367
     17 H9           0.7020     0.1250    -2.2860 hc         1 MOL       0.114367
     18 H10          1.3020     1.6880    -1.6890 hc         1 MOL       0.114367
@<TRIPOS>BOND
     1     1     2 1   
     2     1     3 1   
     3     1     4 2   
     4     1     8 1   
     5     3     5 1   
     6     5     6 1   
     7     5     7 1   
     8     5     9 1   
     9     6    10 1   
    10     6    11 1   
    11     6    12 1   
    12     7    13 1   
    13     7    14 1   
    14     7    15 1   
    15     8    16 1   
    16     8    17 1   
    17     8    18 1   
@<TRIPOS>SUBSTRUCTURE
     1 MOL         1 TEMP              0 ****  ****    0 ROOT
