@<TRIPOS>MOLECULE
LigB
24 24 1 0 0 
SMALL
USER_CHARGES


@<TRIPOS>ATOM
  1 C       75.1880    31.2350    88.2480 C.2   1 <1>  -0.3000 
  2 H       75.6920    31.4580    89.1510 H     1 <1>   0.1500 
  3 H       75.7970    31.0840    87.3950 H     1 <1>   0.1500 
  4 C       73.8440    31.0930    88.1880 C.2   1 <1>  -0.1730 
  5 C       73.0940    30.7410    86.9680 C.2   1 <1>   1.0500 
  6 O       73.7070    30.3220    85.9550 O.co2 1 <1>  -0.9000 
  7 O       71.8410    30.8490    86.9480 O.co2 1 <1>  -0.9000 
  8 O       73.1300    31.2460    89.3840 O.3   1 <1>  -0.3570 
  9 C       72.9020    30.1090    90.2750 C.3   1 <1>   0.3380 
 10 H       72.4440    30.4580    91.1890 H     1 <1>   0.0800 
 11 C       74.2620    29.5160    90.5750 C.2   1 <1>  -0.2880 
 12 H       74.8220    30.0040    91.3300 H     1 <1>   0.1500 
 13 C       74.8310    28.5630    89.7990 C.2   1 <1>  -0.2500 
 14 C       74.0080    27.8800    88.8150 C.2   1 <1>  -0.1500 
 15 H       74.4980    27.2040    88.1590 H     1 <1>   0.1500 
 16 C       72.6830    28.0890    88.7290 C.2   1 <1>  -0.2880 
 17 H       72.0960    27.5950    88.0000 H     1 <1>   0.1500 
 18 C       71.9400    29.0870    89.5950 C.3   1 <1>   0.3380 
 19 H       71.2080    29.6270    89.0080 H     1 <1>   0.0800 
 20 O       71.2820    28.3030    90.6300 O.3   1 <1>  -0.6800 
 21 H       71.9410    27.6560    90.9370 H     1 <1>   0.4000 
 22 C       76.2570    28.2140    89.9280 C.2   1 <1>   1.0500 
 23 O       76.8220    28.4170    91.0310 O.co2 1 <1>  -0.9000 
 24 O       76.8720    27.6270    89.0030 O.co2 1 <1>  -0.9000 
@<TRIPOS>BOND
  1   1   2  1   
  2   1   3  1   
  3   1   4  2   
  4   4   5  1   
  5   4   8  1   
  6   5   6  ar  
  7   5   7  ar  
  8   8   9  1   
  9   9  10  1   
 10   9  11  1   
 11   9  18  1   
 12  11  12  1   
 13  11  13  2   
 14  13  14  1   
 15  13  22  1   
 16  14  15  1   
 17  14  16  2   
 18  16  17  1   
 19  16  18  1   
 20  18  19  1   
 21  18  20  1   
 22  20  21  1   
 23  22  23  ar  
 24  22  24  ar  
@<TRIPOS>SUBSTRUCTURE
  1 ****  13 GROUP 4 **** **** 0

# MOE 2016.08 (io_trps.svl 2016.04)
