@<TRIPOS>MOLECULE
MOL
   18    17     1     0     0
SMALL
resp


@<TRIPOS>ATOM
      1 P1          -1.1330    -0.0590    -0.1670 p5         1 MOL       1.241974
      2 F1          -1.0090    -1.1330     1.0340 f          1 MOL      -0.311699
      3 O1           0.3850     0.0680    -0.6620 os         1 MOL      -0.549626
      4 O2          -2.0770    -0.4570    -1.2280 o          1 MOL      -0.686186
      5 C1           1.5620     0.0890     0.2130 c3         1 MOL       0.608891
      6 C2           2.2400    -1.2720     0.1350 c3         1 MOL      -0.562215
      7 C3           2.4430     1.2370    -0.2600 c3         1 MOL      -0.562215
      8 C4          -1.5590     1.4390     0.7560 c3         1 MOL      -0.489221
      9 H1           1.2290     0.2750     1.2420 h1         1 MOL      -0.026305
     10 H2           3.1320    -1.2830     0.7710 hc         1 MOL       0.151654
     11 H3           1.5660    -2.0640     0.4720 hc         1 MOL       0.151654
     12 H4           2.5440    -1.4860    -0.8940 hc         1 MOL       0.151654
     13 H5           3.3450     1.2970     0.3580 hc         1 MOL       0.151654
     14 H6           1.9150     2.1930    -0.1940 hc         1 MOL       0.151654
     15 H7           2.7440     1.0810    -1.3000 hc         1 MOL       0.151654
     16 H8          -2.5350     1.2960     1.2250 hc         1 MOL       0.142227
     17 H9          -0.8170     1.6610     1.5270 hc         1 MOL       0.142227
     18 H10         -1.6200     2.2730     0.0530 hc         1 MOL       0.142227
@<TRIPOS>BOND
     1     1     2 1   
     2     1     3 1   
     3     1     4 2   
     4     1     8 1   
     5     3     5 1   
     6     5     6 1   
     7     5     7 1   
     8     5     9 1   
     9     6    10 1   
    10     6    11 1   
    11     6    12 1   
    12     7    13 1   
    13     7    14 1   
    14     7    15 1   
    15     8    16 1   
    16     8    17 1   
    17     8    18 1   
@<TRIPOS>SUBSTRUCTURE
     1 MOL         1 TEMP              0 ****  ****    0 ROOT
